@<TRIPOS>MOLECULE
generated by VMD
   14    0    1    0    0
SMALL
NO_CHARGES
****
Energy = 0

@<TRIPOS>ATOM
      1  C1         4.7160    1.0460    0.0610   C1    1  MGL        0.000000
      2  H11        4.6050    1.5480   -0.9280  H11    1  MGL        0.000000
      3  H12        4.9420    1.8330    0.8120  H12    1  MGL        0.000000
      4  O1         5.8340    0.1620   -0.0280   O1    1  MGL        0.000000
      5  HO1        5.4470   -0.6190   -0.4530  HO1    1  MGL        0.000000
      6  C2         3.4310    0.3170    0.4420   C2    1  MGL        0.000000
      7  H2         3.3840    0.1390    1.5400   H2    1  MGL        0.000000
      8  O2         3.3870   -0.9400   -0.2720   O2    1  MGL        0.000000
      9  HO2        2.9270   -1.5470    0.3230  HO2    1  MGL        0.000000
     10  C3         2.2690    1.1690   -0.0500   C3    1  MGL        0.000000
     11  H31        2.5090    1.6300   -1.0330  H31    1  MGL        0.000000
     12  H32        2.0800    1.9960    0.6730  H32    1  MGL        0.000000
     13  O3         1.0650    0.4130   -0.2040   O3    1  MGL        0.000000
     14  HO3        1.3320   -0.3050   -0.7960  HO3    1  MGL        0.000000

@<TRIPOS>SUBSTRUCTURE
1 ****        1 TEMP                        0 ****  **** 0 ROOT
